
 OpenBabel05082622093D

 32 31  0  0  0  0  0  0  0  0999 V2000
    4.5269    0.5381   -1.6954 C   0  0  0  0  0  0  0  0  0  0  0  0
    4.5858   -0.7028   -2.5942 C   0  0  0  0  0  0  0  0  0  0  0  0
    4.0652    0.1711   -0.2799 C   0  0  0  0  0  0  0  0  0  0  0  0
    5.0466   -0.3355   -4.0098 C   0  0  0  0  0  0  0  0  0  0  0  0
    4.0076    1.4122    0.6183 C   0  0  0  0  0  0  0  0  0  0  0  0
    5.1046   -1.5761   -4.9090 C   0  0  0  0  0  0  0  0  0  0  0  0
    3.5606    1.0533    2.0061 C   0  0  0  0  0  0  0  0  0  0  0  0
    5.5647   -1.2087   -6.3247 C   0  0  0  0  0  0  0  0  0  0  0  0
    4.3752    1.2900    3.0561 O   0  0  0  0  0  0  0  0  0  0  0  0
    2.4585    0.5566    2.1867 O   0  0  0  0  0  0  0  0  0  0  0  0
    5.6219   -2.4493   -7.2234 C   0  0  0  0  0  0  0  0  0  0  0  0
    6.0792   -2.0876   -8.6335 C   0  0  0  0  0  0  0  0  0  0  0  0
    3.8173    1.2747   -2.1329 H   0  0  0  0  0  0  0  0  0  0  0  0
    5.5370    1.0015   -1.6434 H   0  0  0  0  0  0  0  0  0  0  0  0
    5.2955   -1.4394   -2.1568 H   0  0  0  0  0  0  0  0  0  0  0  0
    3.5758   -1.1663   -2.6461 H   0  0  0  0  0  0  0  0  0  0  0  0
    4.7748   -0.5650    0.1592 H   0  0  0  0  0  0  0  0  0  0  0  0
    3.0556   -0.2932   -0.3341 H   0  0  0  0  0  0  0  0  0  0  0  0
    4.3369    0.4013   -4.4469 H   0  0  0  0  0  0  0  0  0  0  0  0
    6.0567    0.1278   -3.9582 H   0  0  0  0  0  0  0  0  0  0  0  0
    5.0170    1.8760    0.6681 H   0  0  0  0  0  0  0  0  0  0  0  0
    3.2980    2.1550    0.1935 H   0  0  0  0  0  0  0  0  0  0  0  0
    5.8145   -2.3131   -4.4722 H   0  0  0  0  0  0  0  0  0  0  0  0
    4.0945   -2.0394   -4.9604 H   0  0  0  0  0  0  0  0  0  0  0  0
    6.5751   -0.7457   -6.2738 H   0  0  0  0  0  0  0  0  0  0  0  0
    4.8550   -0.4718   -6.7616 H   0  0  0  0  0  0  0  0  0  0  0  0
    4.1096    1.0711    3.9605 H   0  0  0  0  0  0  0  0  0  0  0  0
    4.6140   -2.9153   -7.2818 H   0  0  0  0  0  0  0  0  0  0  0  0
    6.3328   -3.1891   -6.7946 H   0  0  0  0  0  0  0  0  0  0  0  0
    6.1111   -3.0032   -9.2609 H   0  0  0  0  0  0  0  0  0  0  0  0
    5.3729   -1.3648   -9.0950 H   0  0  0  0  0  0  0  0  0  0  0  0
    7.0951   -1.6391   -8.6069 H   0  0  0  0  0  0  0  0  0  0  0  0
  1  2  1  0  0  0  0
  1  3  1  0  0  0  0
  1 13  1  0  0  0  0
  1 14  1  0  0  0  0
  2  4  1  0  0  0  0
  2 15  1  0  0  0  0
  2 16  1  0  0  0  0
  3  5  1  0  0  0  0
  3 17  1  0  0  0  0
  3 18  1  0  0  0  0
  4  6  1  0  0  0  0
  4 19  1  0  0  0  0
  4 20  1  0  0  0  0
  5  7  1  0  0  0  0
  5 21  1  0  0  0  0
  5 22  1  0  0  0  0
  6  8  1  0  0  0  0
  6 23  1  0  0  0  0
  6 24  1  0  0  0  0
  7  9  1  0  0  0  0
  7 10  2  0  0  0  0
  8 11  1  0  0  0  0
  8 25  1  0  0  0  0
  8 26  1  0  0  0  0
  9 27  1  0  0  0  0
 11 12  1  0  0  0  0
 11 28  1  0  0  0  0
 11 29  1  0  0  0  0
 12 30  1  0  0  0  0
 12 31  1  0  0  0  0
 12 32  1  0  0  0  0
M  END
