-58.23312960
 OpenBabel06012620303D

 15 14  0  0  0  0  0  0  0  0999 V2000
    2.4149    0.5815    1.5621 F   0  0  0  0  0  0  0  0  0  0  0  0
    3.7362    0.1580   -0.0846 F   0  0  0  0  0  0  0  0  0  0  0  0
    2.3568    1.8070   -0.2125 F   0  0  0  0  0  0  0  0  0  0  0  0
    2.5340    0.5886    0.2509 C   0  0  0  0  0  0  0  0  0  0  0  0
    1.2313   -0.6138   -0.5415 S   0  0  0  0  0  0  0  0  0  0  0  0
    1.4849   -0.5046   -1.9297 O   0  0  0  0  0  0  0  0  0  0  0  0
    1.4144   -1.8351    0.1525 O   0  0  0  0  0  0  0  0  0  0  0  0
   -1.4142   -1.8350   -0.1530 O   0  0  0  0  0  0  0  0  0  0  0  0
   -1.4853   -0.5052    1.9296 O   0  0  0  0  0  0  0  0  0  0  0  0
   -1.2315   -0.6139    0.5415 S   0  0  0  0  0  0  0  0  0  0  0  0
    0.0000    0.2379    0.0003 N   0  0  0  0  0  2  0  0  0  0  0  0
   -2.3572    1.8068    0.2137 F   0  0  0  0  0  0  0  0  0  0  0  0
   -2.4140    0.5826   -1.5620 F   0  0  0  0  0  0  0  0  0  0  0  0
   -3.7363    0.1575    0.0836 F   0  0  0  0  0  0  0  0  0  0  0  0
   -2.5339    0.5887   -0.2508 C   0  0  0  0  0  0  0  0  0  0  0  0
  2  4  1  0  0  0  0
  3  4  1  0  0  0  0
  4  1  1  0  0  0  0
  5 11  1  0  0  0  0
  5  7  2  0  0  0  0
  5  4  1  0  0  0  0
  6  5  2  0  0  0  0
  8 10  2  0  0  0  0
 10  9  2  0  0  0  0
 11 10  1  0  0  0  0
 13 15  1  0  0  0  0
 15 14  1  0  0  0  0
 15 12  1  0  0  0  0
 15 10  1  0  0  0  0
M  END
