2537
  Avogadro05072616453D

 27 28  0  0  0  0  0  0  0  0999 V2000
   -2.5099    0.3657    0.2384 O   0  0  0  0  0  0  0  0  0  0  0  0
    0.9563    0.2699    0.4008 C   0  0  0  0  0  0  0  0  0  0  0  0
   -0.2253    0.5010   -0.5532 C   0  0  0  0  0  0  0  0  0  0  0  0
    0.5876   -1.2090    0.5961 C   0  0  0  0  0  0  0  0  0  0  0  0
   -0.0110   -0.5552   -1.6410 C   0  0  0  0  0  0  0  0  0  0  0  0
    0.5501   -1.7395   -0.8458 C   0  0  0  0  0  0  0  0  0  0  0  0
   -0.8636   -1.1606    1.0958 C   0  0  0  0  0  0  0  0  0  0  0  0
   -1.3597   -0.0336    0.2625 C   0  0  0  0  0  0  0  0  0  0  0  0
    2.3553    0.5095   -0.1955 C   0  0  0  0  0  0  0  0  0  0  0  0
    0.9123    1.1153    1.6878 C   0  0  0  0  0  0  0  0  0  0  0  0
   -0.4401    1.9142   -1.0840 C   0  0  0  0  0  0  0  0  0  0  0  0
    1.2284   -1.8298    1.2571 H   0  0  0  0  0  0  0  0  0  0  0  0
    0.7422   -0.2184   -2.3843 H   0  0  0  0  0  0  0  0  0  0  0  0
   -0.9442   -0.7935   -2.1954 H   0  0  0  0  0  0  0  0  0  0  0  0
   -0.0447   -2.6718   -0.9487 H   0  0  0  0  0  0  0  0  0  0  0  0
    1.5767   -1.9701   -1.1998 H   0  0  0  0  0  0  0  0  0  0  0  0
   -0.9251   -0.8959    2.1714 H   0  0  0  0  0  0  0  0  0  0  0  0
   -1.4085   -2.1146    0.9340 H   0  0  0  0  0  0  0  0  0  0  0  0
    2.5679   -0.0185   -1.1448 H   0  0  0  0  0  0  0  0  0  0  0  0
    3.1347    0.1850    0.5258 H   0  0  0  0  0  0  0  0  0  0  0  0
    2.5051    1.5898   -0.4034 H   0  0  0  0  0  0  0  0  0  0  0  0
    1.6877    0.7661    2.4018 H   0  0  0  0  0  0  0  0  0  0  0  0
   -0.0591    1.1036    2.2207 H   0  0  0  0  0  0  0  0  0  0  0  0
    1.1129    2.1823    1.4554 H   0  0  0  0  0  0  0  0  0  0  0  0
    0.4458    2.2473   -1.6634 H   0  0  0  0  0  0  0  0  0  0  0  0
   -1.3265    1.9406   -1.7519 H   0  0  0  0  0  0  0  0  0  0  0  0
   -0.6077    2.6243   -0.2478 H   0  0  0  0  0  0  0  0  0  0  0  0
  1  8  2  0  0  0  0
  2  3  1  0  0  0  0
  2  4  1  0  0  0  0
  2  9  1  0  0  0  0
  2 10  1  0  0  0  0
  3  5  1  0  0  0  0
  3  8  1  0  0  0  0
  3 11  1  0  0  0  0
  4  6  1  0  0  0  0
  4  7  1  0  0  0  0
  4 12  1  0  0  0  0
  5  6  1  0  0  0  0
  5 13  1  0  0  0  0
  5 14  1  0  0  0  0
  6 15  1  0  0  0  0
  6 16  1  0  0  0  0
  7  8  1  0  0  0  0
  7 17  1  0  0  0  0
  7 18  1  0  0  0  0
  9 19  1  0  0  0  0
  9 20  1  0  0  0  0
  9 21  1  0  0  0  0
 10 22  1  0  0  0  0
 10 23  1  0  0  0  0
 10 24  1  0  0  0  0
 11 25  1  0  0  0  0
 11 26  1  0  0  0  0
 11 27  1  0  0  0  0
M  END
