-17.72514539
 OpenBabel06172616193D

 15 14  0  0  0  0  0  0  0  0999 V2000
   -0.7370    0.6455    0.2938 C   0  0  0  0  0  0  0  0  0  0  0  0
    0.5025   -0.0032   -0.3366 C   0  0  0  0  0  0  0  0  0  0  0  0
    1.7523    0.8022    0.0050 C   0  0  0  0  0  0  0  0  0  0  0  0
    0.6378   -1.4492    0.1330 C   0  0  0  0  0  0  0  0  0  0  0  0
   -1.9397    0.0110   -0.0702 O   0  0  0  0  0  0  0  0  0  0  0  0
   -0.6864    0.5685    1.3824 H   0  0  0  0  0  0  0  0  0  0  0  0
   -0.7718    1.7120    0.0234 H   0  0  0  0  0  0  0  0  0  0  0  0
    0.3686    0.0009   -1.4267 H   0  0  0  0  0  0  0  0  0  0  0  0
    1.6675    1.8231   -0.3613 H   0  0  0  0  0  0  0  0  0  0  0  0
    2.6301    0.3464   -0.4465 H   0  0  0  0  0  0  0  0  0  0  0  0
    1.8974    0.8350    1.0824 H   0  0  0  0  0  0  0  0  0  0  0  0
    0.8612   -1.4781    1.1971 H   0  0  0  0  0  0  0  0  0  0  0  0
    1.4375   -1.9547   -0.4034 H   0  0  0  0  0  0  0  0  0  0  0  0
   -0.2921   -1.9871   -0.0355 H   0  0  0  0  0  0  0  0  0  0  0  0
   -2.0102    0.0159   -1.0314 H   0  0  0  0  0  0  0  0  0  0  0  0
  1  6  1  0  0  0  0
  2  3  1  0  0  0  0
  2  4  1  0  0  0  0
  2  1  1  0  0  0  0
  3 11  1  0  0  0  0
  4 12  1  0  0  0  0
  5  1  1  0  0  0  0
  7  1  1  0  0  0  0
  8  2  1  0  0  0  0
  9  3  1  0  0  0  0
 10  3  1  0  0  0  0
 13  4  1  0  0  0  0
 14  4  1  0  0  0  0
 15  5  1  0  0  0  0
M  END
