
 OpenBabel05302618093D

 26 27  0  0  0  0  0  0  0  0999 V2000
    6.3469    1.9272   -0.6685 C   0  0  0  0  0  0  0  0  0  0  0  0
    6.6337    0.5572   -0.7752 C   0  0  0  0  0  0  0  0  0  0  0  0
    5.1160    2.3216   -0.1193 C   0  0  0  0  0  0  0  0  0  0  0  0
    7.3500    2.9190   -1.1374 C   0  0  0  0  0  0  0  0  0  0  0  0
    5.7134   -0.3969   -0.3428 C   0  0  0  0  0  0  0  0  0  0  0  0
    7.8022    0.0648   -1.2952 O   0  0  0  0  0  0  0  0  0  0  0  0
    4.1954    1.3622    0.3125 C   0  0  0  0  0  0  0  0  0  0  0  0
    4.4944    0.0054    0.2008 C   0  0  0  0  0  0  0  0  0  0  0  0
    6.8914    4.2056   -0.9395 O   0  0  0  0  0  0  0  0  0  0  0  0
    8.4190    2.5727   -1.6249 O   0  0  0  0  0  0  0  0  0  0  0  0
    9.4529    7.2789   -2.1147 C   0  0  0  0  0  0  0  0  0  0  0  0
    8.2806    7.0258   -2.8308 C   0  0  0  0  0  0  0  0  0  0  0  0
    9.7813    6.4985   -1.0037 C   0  0  0  0  0  0  0  0  0  0  0  0
    7.4359    5.9873   -2.4410 C   0  0  0  0  0  0  0  0  0  0  0  0
    7.7839    5.2028   -1.3434 C   0  0  0  0  0  0  0  0  0  0  0  0
    8.9401    5.4594   -0.6076 C   0  0  0  0  0  0  0  0  0  0  0  0
    4.8528    3.3718   -0.0179 H   0  0  0  0  0  0  0  0  0  0  0  0
    5.9491   -1.4546   -0.4312 H   0  0  0  0  0  0  0  0  0  0  0  0
    8.3682    0.8183   -1.5747 H   0  0  0  0  0  0  0  0  0  0  0  0
    3.2436    1.6741    0.7369 H   0  0  0  0  0  0  0  0  0  0  0  0
    3.7786   -0.7410    0.5367 H   0  0  0  0  0  0  0  0  0  0  0  0
   10.1114    8.0878   -2.4218 H   0  0  0  0  0  0  0  0  0  0  0  0
    8.0267    7.6397   -3.6910 H   0  0  0  0  0  0  0  0  0  0  0  0
   10.6929    6.7013   -0.4476 H   0  0  0  0  0  0  0  0  0  0  0  0
    6.5201    5.7923   -2.9901 H   0  0  0  0  0  0  0  0  0  0  0  0
    9.1914    4.8555    0.2587 H   0  0  0  0  0  0  0  0  0  0  0  0
  1  4  1  0  0  0  0
  1  2  1  0  0  0  0
  1  3  2  0  0  0  0
  2  6  1  0  0  0  0
  2  5  2  0  0  0  0
  3 17  1  0  0  0  0
  4  9  1  0  0  0  0
  4 10  2  0  0  0  0
  5  8  1  0  0  0  0
  5 18  1  0  0  0  0
  6 19  1  0  0  0  0
  7  3  1  0  0  0  0
  7 20  1  0  0  0  0
  8  7  2  0  0  0  0
  8 21  1  0  0  0  0
  9 15  1  0  0  0  0
 11 12  1  0  0  0  0
 11 13  2  0  0  0  0
 11 22  1  0  0  0  0
 12 14  2  0  0  0  0
 12 23  1  0  0  0  0
 13 24  1  0  0  0  0
 14 15  1  0  0  0  0
 14 25  1  0  0  0  0
 15 16  2  0  0  0  0
 16 13  1  0  0  0  0
 16 26  1  0  0  0  0
M  END
